443
Atoms. Timestep: 25000
H 3.16674 5.75013 4.37865
H 5.60413 5.51793 -0.982064
H -0.285243 8.35062 4.28122
H 4.68082 4.72091 1.94471
H 3.5321 7.23241 0.469328
H 5.25197 7.63029 -1.02967
H 5.41847 2.96739 3.19172
H 11.5833 7.41781 2.63081
H 10.9102 8.46181 2.19729
H 11.2059 5.40528 3.44325
H 2.76368 9.30401 2.07971
H -0.945065 8.80534 1.29676
H 1.91406 9.44256 5.46298
H 2.35019 8.78485 3.49765
H 6.57314 10.6243 4.08657
H 2.90452 9.00109 4.80137
H 9.98632 2.83691 3.52986
H 7.99933 4.85403 2.53446
H 9.38741 3.0189 -0.253417
H 5.70268 5.45938 1.4105
H 7.97813 3.38109 0.704486
H 5.19898 6.95446 1.69578
H 3.57231 4.14838 4.38047
H 1.24952 5.65158 3.26075
H 0.744811 5.57823 0.662922
H -3.37554 4.15848 2.54027
H 9.00221 11.0266 5.38036
H 5.6999 5.43828 3.07218
H 9.30986 8.47544 4.03745
H 10.341 9.95517 2.60794
H 2.81392 7.62386 1.07228
H 4.23217 10.5514 4.28472
H 4.41121 8.79445 2.03502
H 6.84045 9.44027 2.04176
H 8.03311 7.75825 -0.515054
H 10.516 4.07226 -0.631501
H 9.32181 3.01568 6.32425
H 8.30497 1.64999 6.24464
H 7.11927 3.14616 4.37671
H 4.08434 1.84888 -0.578208
H 2.93115 3.29354 -0.557861
H 6.59732 0.413198 0.283021
H 2.42552 -1.97074 2.70739
H 0.568165 4.58164 2.98508
H -1.39305 4.22479 2.12291
H 8.40679 0.481703 0.938017
H 7.57802 -0.399606 -2.08991
H 6.21887 1.47625 1.85372
H 3.993 -3.34161 2.95983
H 1.54715 -0.807471 2.86934
H 10.3353 13.4265 -3.12309
H 6.78973 9.44479 -0.0181234
H 4.90478 10.596 -0.846567
H 3.69374 10.3468 0.0342475
H 1.26769 7.82601 -3.59236
H 12.7754 7.54992 -3.02719
H 12.0069 8.08917 -2.30509
H 11.0037 6.03253 -1.97673
H 6.44388 8.00492 2.63066
H 5.697 6.83293 -2.36316
H 4.0896 9.37646 3.59365
H 4.08434 8.42582 -3.47341
H 2.10353 9.57097 -1.08718
H 4.73742 7.81425 -0.0015874
H -1.43304 10.2192 -0.445445
H 9.29742 9.2153 -0.5878
H 8.30747 9.31334 3.64537
H 9.87515 7.03666 0.467021
H 7.64875 7.14448 1.90851
H 6.97993 4.7628 -1.31546
H 5.64718 9.86951 0.499687
H 5.74378 8.69776 1.55634
H 5.19456 7.73952 2.49806
H -1.4921 8.88376 0.139256
H 1.58646 6.21191 -0.239571
H 8.28035 4.04786 -0.51662
H 8.92806 8.40228 2.87434
H 10.7147 4.7446 -3.84259
H 7.73411 8.3117 -1.81016
H 5.52869 3.4756 -0.654479
H 6.7561 5.31829 -0.24806
H 4.76554 3.03103 -3.47608
H 6.76059 2.46341 1.92002
H 2.92792 0.331064 -3.73942
H 3.08978 6.70928 -0.383913
H 0.348533 3.04871 5.06993
H 2.14993 4.00806 5.93961
H 5.06788 0.180393 3.2363
H 11.758 2.93491 -2.32466
H 9.97072 1.40775 -0.553772
H 10.8513 3.91485 -2.63777
H 6.89525 3.73597 0.758994
H 8.08046 5.28017 -2.09298
H 3.4547 0.762122 -2.66218
H 1.7862 5.60313 -1.9398
H 5.3808 0.259164 0.12489
H 2.81439 -0.364332 2.38433
H -1.4661 6.63792 -0.842744
H 9.02998 0.293776 4.97434
H 11.0638 3.47748 6.13579
H 3.24817 4.20909 5.81446
H 4.81999 0.792625 4.02383
H 5.12035 3.48643 5.88563
H 5.2357 5.97009 4.14766
H 10.4001 4.71716 2.6786
H 10.2197 11.7263 5.63914
H 8.44936 12.3877 6.07522
H 6.60829 12.0234 2.56352
H 3.83987 11.8028 5.00506
H 2.81654 10.8086 3.96729
H 8.41769 7.6704 3.97911
H 7.4031 7.92145 3.02007
H 4.54465 5.03957 3.43873
H 3.2915 8.03241 6.29986
H 1.11797 8.68737 6.18117
H 13.1056 5.43899 7.52003
H -0.253683 0.734117 1.08122
H 0.477504 5.79418 4.30762
H 6.66724 -1.56035 2.21315
H 3.88783 5.28596 7.14801
H 7.50341 -2.5627 -0.716631
H 7.12499 6.36836 7.04663
H 5.82666 3.06791 0.567134
H 10.7723 7.44463 6.06823
H 11.4136 -2.50991 -1.5563
H 11.6404 19.424 1.63291
H 9.67683 20.8897 6.59194
H 8.72371 17.9203 3.90503
H 3.03023 18.2779 0.68104
H 3.15036 17.9437 6.41656
H 0.925189 13.4984 0.201967
H 0.599123 7.54907 -2.59634
H 4.57157 13.0648 -1.71818
H 6.48335 10.2516 0.891921
H 10.5303 11.6585 0.549203
H 3.44089 21.365 2.0064
H 1.7999 20.7211 -1.17861
H 0.134757 19.182 4.996
H -1.31286 15.7898 0.211941
H -1.44729 20.6829 1.45219
H 6.61341 14.6132 0.777152
H 7.43161 18.0035 1.82228
H 8.62307 16.3892 3.64285
H 8.16824 18.9496 0.675172
H 2.57039 17.1118 0.703071
H 1.92242 18.4947 1.85896
H 0.156907 12.952 1.5151
H 3.35039 12.854 -0.928989
H 2.86318 12.2898 -0.106332
H 1.82226 10.6582 -0.893366
H 6.20486 11.2644 0.704654
H 9.21577 11.9379 1.26421
H 6.65415 15.0628 2.48488
H 9.95067 10.9624 -0.637281
H 9.09828 12.2808 -0.554013
H 12.2044 10.159 0.161843
H 1.96759 16.5496 -0.03546
H 4.49732 13.7105 1.50022
H 1.3881 14.5788 1.94571
H 1.71356 16.4556 4.48623
H 8.57099 14.6195 2.07576
H 10.2348 16.3262 3.54821
H 9.21449 14.4043 4.23142
H 5.72761 14.0688 4.82753
H 6.93571 12.8425 2.89961
H 5.01057 12.5562 1.47784
H 4.09635 11.9903 0.477513
H -0.358117 13.0965 -0.939182
H 0.852937 12.5076 2.2631
H -0.740957 15.3803 -1.55988
H 0.96919 12.6183 -1.39991
H 3.42681 13.9856 -0.412189
H 6.75913 15.6689 -0.0709919
H 4.16116 15.1363 0.666608
H 9.01109 10.959 -2.14432
H 9.87727 13.0862 0.0537158
H 9.66672 15.8273 -2.22629
H 1.85047 15.3738 5.91922
H 2.79852 14.3232 3.48182
H -1.65555 14.2344 0.348294
H 2.54145 9.75803 6.66076
H 4.23431 12.5687 3.39239
H 7.15612 12.9002 6.90392
H 8.47691 13.9608 5.70409
H 9.86909 15.3347 4.69268
H -0.169354 13.029 3.91117
H 1.97729 12.6002 1.3318
H 5.46348 14.4622 2.92802
H -1.91787 15.9155 3.27991
H 2.4076 16.964 -1.75259
H 1.59345 19.5854 -0.680074
H 4.76684 16.817 -0.491831
H 4.8757 16.2261 -1.97409
H 5.55554 18.6283 -3.87434
H 4.82105 16.3118 1.20727
H 5.69765 18.773 2.86952
H 7.05723 16.3644 -1.28661
H 10.6259 18.802 -3.88143
H 7.53599 17.2085 6.73278
H 9.99227 13.2545 2.3412
H 8.02976 9.76744 2.15644
H 9.7682 9.33367 0.96156
H 5.77326 12.1633 1.00065
H 4.03824 13.424 2.789
H 5.59275 11.586 5.26551
H 3.8929 9.9811 2.65335
H 2.65013 13.17 5.83474
H 1.11959 11.0096 2.92167
H 1.38617 11.7333 5.65025
H 1.74354 21.42 -0.303326
H 0.0841024 18.2973 -0.559125
H 2.35332 22.6334 4.40971
H 6.66098 20.7467 -1.43989
H 2.46477 22.7094 1.98688
H 5.8306 21.2233 1.36615
H 8.39102 21.4731 4.32549
H 6.06355 19.2529 -0.732899
H 7.23205 16.3792 0.601179
H 8.8757 15.4843 -0.502109
H 8.39552 12.8257 7.94626
H 2.93053 16.9617 6.66734
H 4.47334 14.6019 5.69586
H 7.26191 16.0856 3.17504
H 5.78657 17.9214 3.5555
H 9.24626 16.3356 1.92402
H -1.43847 19.4414 5.89582
H 5.30226 16.1265 4.63386
H 8.56177 20.9404 5.65429
H 8.11104 20.4784 7.05691
H 10.5942 19.7165 4.11647
H 8.99891 8.52125 6.47784
H 7.13562 9.1047 3.65261
H 5.78994 12.9552 2.77347
H 2.35164 12.0033 5.11389
H 0.887408 9.38416 2.78986
H 11.6449 1.16285 1.66459
H 11.5156 6.10403 1.74302
H 12.7191 6.43414 1.53453
H 11.8706 4.86589 1.48277
H 15.9483 6.35724 3.88683
H 18.9112 7.02646 2.9914
H 16.9336 7.37762 4.09365
H 18.0546 5.48929 1.81792
H 20.6243 7.28001 1.30141
H 12.415 6.83049 4.63836
H 13.149 10.719 -0.444431
H 14.7056 8.16247 3.78691
H 15.7722 8.81033 6.91462
H 19.6251 4.02391 0.426119
H 21.2424 1.45257 2.89923
H 13.7118 8.04076 2.74489
H 17.727 3.472 4.86616
H 16.0935 3.35561 1.17636
H 14.2582 4.80369 -0.169081
H 14.7013 4.03348 3.55833
H 11.275 4.13314 3.18261
H 9.41678 3.82695 1.92456
H 12.3579 11.0558 1.93792
H 15.8301 7.14376 2.92792
H 17.2662 8.82252 5.27836
H 16.1892 7.5137 1.00195
H 17.5746 8.75644 3.40598
H 13.5788 8.50438 -0.0707639
H 15.594 8.00586 -0.965461
H 17.6575 11.2582 3.84541
H 21.0361 12.0254 -0.481946
H 21.8031 -0.639612 6.24511
H 20.4771 0.314768 4.42627
H 19.4557 3.63698 2.2207
H 16.9649 2.29562 3.64103
H 14.5032 3.02397 4.59175
H 15.1798 1.99235 1.06236
H 14.8661 4.64704 5.76033
H 12.8843 0.608551 3.48264
H 7.54947 2.28393 0.793302
H 18.4511 -1.95972 4.24716
H 17.3605 1.86392 7.49042
H 15.8932 -0.759447 3.15537
H 16.6006 -0.917053 0.960011
H 10.1358 0.0232441 4.3231
H 15.2675 6.89518 -2.68542
H 15.9014 11.5706 -1.98446
H 13.9581 9.92138 -0.281033
H 13.4078 13.0515 -1.06398
H 21.7252 11.2047 0.427961
H 17.2309 9.05093 0.920332
H 16.3153 8.87679 1.69893
H 17.0523 5.74278 -4.03326
H 14.2254 8.94133 1.11459
H 14.6235 5.61868 0.849772
H 14.9202 8.14984 -2.04606
H 11.9715 6.48587 0.814608
H 11.4243 9.43021 0.268541
H 18.3052 6.42123 1.54033
H 17.5827 3.59949 1.14712
H 19.2387 5.52945 -3.69298
H 18.8425 7.60643 -0.000972996
H 15.1506 4.92524 2.11412
H 14.7626 7.24643 -1.46213
H 13.3461 3.37936 -0.55576
H 11.8384 4.91173 -0.0910785
H 10.1798 5.07295 1.01894
H 21.6894 3.6556 -1.6792
H 17.2188 2.58486 1.63006
H 16.1933 5.14927 -0.196775
H 17.0538 4.73925 2.53279
H 15.5947 5.09331 -2.09679
H 13.7618 3.10889 -2.59701
H 11.7365 6.53387 -2.89671
H 14.2437 4.48413 -1.60511
H 12.2433 2.93818 -0.264998
H 13.7044 4.54712 1.9656
H 13.6037 1.30397 3.47924
H 14.3635 2.58445 7.71396
H 19.7185 1.57306 8.07944
H 10.2885 1.06847 4.49539
H 16.7696 4.9033 4.64718
H 15.7935 4.97294 7.24352
H 19.0044 1.69463 4.10699
H 12.7768 7.86456 6.6494
H 20.2617 0.0847597 3.14155
H 20.0299 1.22839 -1.68154
H 15.99 2.08871 0.229356
H 16.3847 4.38518 -1.69571
H 14.6446 1.23866 2.1586
H 13.0216 1.76287 -0.834085
H 14.8137 3.85179 -0.237216
H 12.6348 3.29022 -1.29283
H 13.4164 2.59396 2.34121
H 12.0244 8.46551 0.974621
H 16.3047 7.39178 7.60202
H 16.8649 6.21404 4.23327
H 13.8397 11.0724 6.04341
H 14.0502 9.02797 7.41017
H 13.335 6.22122 6.24908
H 8.81842 -1.46736 3.44089
H 18.8247 8.93899 6.46074
H 13.1373 -0.326418 0.371225
H 13.8283 9.80584 2.81723
H 17.5195 0.945195 -0.218298
H 14.2296 9.09457 4.71322
H 19.6947 0.0710518 2.14897
H 17.1123 6.5182 6.22619
H 17.8477 0.446106 -1.90581
H 14.9442 12.6595 8.00177
H 10.9156 10.7276 0.722726
H 12.3304 11.3996 4.49227
H 14.4449 12.4246 -0.757384
H 17.4868 10.4531 2.78008
H 17.4116 12.6352 1.69649
H 16.3071 22.4418 5.59748
H 16.1649 20.2803 3.02767
H 14.3222 23.0977 3.97948
H 14.6036 17.7486 0.621178
H 16.8866 18.3745 4.12909
H 11.0511 13.1082 -2.32295
H 15.0497 13.2769 -1.69165
H 11.1666 13.2866 3.45183
H 11.3208 13.4602 1.47668
H 15.7654 11.6338 2.40557
H 12.6708 9.10585 -2.83985
H 16.8171 12.706 3.24033
H 18.6365 11.1069 -3.0804
H 16.7413 13.8474 -0.901261
H 10.4774 20.5547 0.162358
H 15.9272 19.6142 1.78393
H 11.8272 19.4713 4.40918
H 13.2277 21.6102 1.34265
H 17.1967 16.0891 5.09045
H 15.7574 14.6892 2.47244
H 12.4789 15.9656 4.07168
H 16.8183 13.1824 0.538915
H 13.1561 18.9445 1.12604
H 14.6477 14.4168 5.95735
H 13.2191 16.0938 1.05548
H 9.91527 14.6343 0.463128
H 11.5288 11.7838 -0.600577
H 12.2809 15.0866 -0.858025
H 13.9567 15.8358 -0.256182
H 16.0837 14.8577 -0.234561
H 18.0299 13.8716 -1.88422
H 14.2833 14.5693 3.24852
H 19.611 15.1755 -1.5274
H 20.6163 15.2098 2.35557
H 14.3476 12.7341 2.37952
H 11.0155 16.9097 2.2833
H 16.3415 15.4462 5.16616
H 20.6141 13.9773 4.30265
H 17.7961 15.0391 1.79694
H 16.8337 15.6596 3.76998
H 15.9095 16.7048 0.141643
H 13.4894 11.7954 0.658597
H 13.7906 13.9016 4.1659
H 10.2815 12.1487 -0.477008
H 11.284 15.8612 3.87561
H 11.0412 17.6779 1.21886
H 13.3004 13.6838 -4.55002
H 14.9985 15.8211 2.39684
H 13.4056 17.4519 0.451908
H 16.9151 15.3541 -2.84881
H 19.4455 14.5073 0.776557
H 16.8009 15.4131 1.04738
H 19.1172 12.831 2.60279
H 21.3781 16.3874 -2.51031
H 9.62911 14.5734 5.53295
H 13.4322 12.5396 3.47916
H 16.8042 13.285 6.15634
H 17.2295 9.58126 6.05943
H 10.1567 15.9109 0.673906
H 14.1668 13.113 6.6149
H 18.0876 14.7874 3.14293
H 19.0493 15.1097 5.1278
H 11.3636 13.7662 8.4155
H 11.9041 17.0802 4.40077
H 18.7501 10.277 2.25281
H 8.38114 19.8935 1.1474
H 11.9455 20.888 -3.14208
H 11.8079 16.1685 -0.613935
H 16.5263 21.3385 2.11203
H 18.5473 21.3454 3.15875
H 16.8866 17.8287 -0.103353
H 18.502 21.3637 0.719068
H 17.4946 17.1171 4.25066
H 18.8242 18.1274 1.08455
H 18.4309 14.2703 4.93763
H 15.7497 13.9144 5.83203
H 15.8286 11.0387 3.78953
H 12.9863 10.9087 0.575755
H 15.0124 10.3261 3.80071
H 12.3965 14.9917 4.65468
H 12.3414 12.8056 4.83798
H 7.78687 12.3491 5.02637
H 15.4646 16.2137 4.00617
H 14.911 17.0378 3.24739
H 10.1929 16.9254 6.8241
H 11.9096 17.9724 5.61346
H 14.5312 21.4454 7.6546
H 22.7604 12.815 1.84265
H 20.0695 9.71775 3.7676
H 17.2651 10.3396 -0.196592
H 13.6265 11.1287 4.78745
H 11.6772 14.4846 5.32017
H 20.5399 17.2585 2.41348
